Version 4.1
SHEET 1 880 680
WIRE 464 -48 -80 -48
WIRE 464 32 464 -48
WIRE 464 32 416 32
WIRE 128 64 48 64
WIRE 224 64 192 64
WIRE 624 80 400 80
WIRE 640 80 624 80
WIRE -80 128 -80 -48
WIRE -48 128 -80 128
WIRE 48 128 48 64
WIRE 48 128 32 128
WIRE 80 128 48 128
WIRE 400 128 400 80
WIRE 224 144 224 64
WIRE 224 144 144 144
WIRE 336 144 336 32
WIRE 336 144 304 144
WIRE 368 144 336 144
WIRE 464 160 464 32
WIRE 464 160 432 160
WIRE 528 160 464 160
WIRE 624 160 624 80
WIRE 624 160 608 160
WIRE 224 400 224 144
WIRE 336 400 224 400
WIRE 512 416 400 416
WIRE 512 528 512 496
FLAG -176 240 0
FLAG -336 208 0
FLAG -336 128 VDD
IOPIN -336 128 Out
FLAG -176 160 Vcm
IOPIN -176 160 Out
FLAG 640 80 VDD
IOPIN 640 80 In
FLAG 112 176 VDD
IOPIN 112 176 In
FLAG 400 192 0
FLAG 112 112 0
FLAG 80 160 Vcm
IOPIN 80 160 In
FLAG 368 176 Vcm
IOPIN 368 176 In
FLAG 368 384 0
FLAG 368 448 VDD
IOPIN 368 448 Out
FLAG 336 432 Vcm
IOPIN 336 432 In
FLAG 512 528 VDD
IOPIN 512 528 Out
SYMBOL res 208 128 M90
WINDOW 0 0 56 VBottom 2
WINDOW 3 32 56 VTop 2
SYMATTR InstName R1
SYMATTR Value 1k
SYMBOL cap 192 48 R90
WINDOW 0 0 32 VBottom 2
WINDOW 3 32 32 VTop 2
SYMATTR InstName C1
SYMATTR Value 10n
SYMBOL res 48 112 R90
WINDOW 0 0 56 VBottom 2
WINDOW 3 32 56 VTop 2
SYMATTR InstName R2
SYMATTR Value 1.25k
SYMBOL res 432 16 R90
WINDOW 0 0 56 VBottom 2
WINDOW 3 32 56 VTop 2
SYMATTR InstName R3
SYMATTR Value 5.02k
SYMBOL voltage -336 112 R0
WINDOW 123 0 0 Left 0
WINDOW 39 0 0 Left 0
SYMATTR InstName VDD
SYMATTR Value 5
SYMBOL voltage -176 144 R0
WINDOW 123 0 0 Left 0
WINDOW 39 0 0 Left 0
SYMATTR InstName Vcm
SYMATTR Value 2.5
SYMBOL MCP6001 112 144 M180
SYMATTR InstName U4
SYMBOL LM339 432 160 R0
SYMATTR InstName U1
SYMBOL res 624 144 R90
WINDOW 0 0 56 VBottom 2
WINDOW 3 32 56 VTop 2
SYMATTR InstName R4
SYMATTR Value 550
SYMBOL LM339 400 416 M180
SYMATTR InstName U2
SYMBOL res 496 400 R0
SYMATTR InstName R5
SYMATTR Value 550
TEXT -400 304 Left 2 !.tran 0 200us 0 1us
