Version 4.1
SHEET 1 1092 872
WIRE 752 -656 208 -656
WIRE 752 -576 752 -656
WIRE 752 -576 704 -576
WIRE 416 -544 336 -544
WIRE 512 -544 480 -544
WIRE 912 -528 688 -528
WIRE 928 -528 912 -528
WIRE 208 -480 208 -656
WIRE 240 -480 208 -480
WIRE 336 -480 336 -544
WIRE 336 -480 320 -480
WIRE 368 -480 336 -480
WIRE 688 -480 688 -528
WIRE 512 -464 512 -544
WIRE 512 -464 432 -464
WIRE 624 -464 624 -576
WIRE 624 -464 592 -464
WIRE 656 -464 624 -464
WIRE 752 -448 752 -576
WIRE 752 -448 720 -448
WIRE 816 -448 752 -448
WIRE 912 -448 912 -528
WIRE 912 -448 896 -448
WIRE 512 -208 512 -464
WIRE 624 -208 512 -208
WIRE 800 -192 688 -192
WIRE 912 -192 800 -192
WIRE 800 -80 800 -112
WIRE 224 256 -272 256
WIRE -64 336 -112 336
WIRE -272 352 -272 256
WIRE -224 352 -272 352
WIRE -256 384 -272 384
WIRE -224 384 -256 384
WIRE -64 448 -64 336
WIRE -48 448 -64 448
WIRE 224 448 224 256
WIRE 368 448 224 448
WIRE 656 448 624 448
WIRE 768 448 768 384
WIRE 768 448 656 448
WIRE -256 496 -256 384
WIRE 816 496 816 464
WIRE 896 496 816 496
WIRE 1024 496 976 496
WIRE 1088 496 1024 496
WIRE 816 512 816 496
WIRE 1024 528 1024 496
WIRE 368 544 224 544
WIRE 640 544 624 544
WIRE -48 576 -64 576
WIRE 80 576 64 576
WIRE 640 592 640 544
WIRE 656 592 640 592
WIRE 768 592 656 592
WIRE 0 704 -240 704
WIRE 224 704 224 544
WIRE 224 704 112 704
WIRE -64 752 -64 576
WIRE -64 752 -112 752
WIRE -240 768 -240 704
WIRE -224 768 -240 768
WIRE -256 800 -256 608
WIRE -224 800 -256 800
FLAG -1072 352 0
FLAG -1072 272 Vcm
IOPIN -1072 272 Out
FLAG -864 272 0
FLAG -864 192 Vctrl
IOPIN -864 192 Out
FLAG -720 256 0
FLAG -720 176 Vdp
IOPIN -720 176 Out
FLAG -288 560 0
FLAG 64 736 0
FLAG -112 816 0
FLAG -112 400 0
FLAG -224 560 Vdd
IOPIN -224 560 In
FLAG -112 368 Vdd
IOPIN -112 368 In
FLAG -112 784 Vdd
IOPIN -112 784 In
FLAG 64 672 Vdd
IOPIN 64 672 In
FLAG -128 576 0
FLAG -128 448 0
FLAG 0 608 0
FLAG 128 608 0
FLAG 0 480 0
FLAG 0 416 Vdd
IOPIN 0 416 In
FLAG 0 544 Vdd
IOPIN 0 544 In
FLAG 128 544 Vdd
IOPIN 128 544 In
FLAG 64 448 Vgate_n
IOPIN 64 448 In
FLAG 192 576 Vgate_p
IOPIN 192 576 In
FLAG 432 624 0
FLAG 560 624 0
FLAG 432 368 Vdd
IOPIN 432 368 In
FLAG 560 368 Vdd
IOPIN 560 368 In
FLAG 816 608 0
FLAG 656 448 Vgate_p
IOPIN 656 448 Out
FLAG 656 592 Vgate_n
IOPIN 656 592 Out
FLAG 1024 592 0
FLAG -272 384 Vpwm
IOPIN -272 384 In
FLAG -48 -400 0
FLAG -48 -480 Vdd
IOPIN -48 -480 Out
FLAG 928 -528 Vdd
IOPIN 928 -528 In
FLAG 400 -432 Vdd
IOPIN 400 -432 In
FLAG 688 -416 0
FLAG 400 -496 0
FLAG 368 -448 Vcm
IOPIN 368 -448 In
FLAG 656 -432 Vcm
IOPIN 656 -432 In
FLAG 656 -224 0
FLAG 656 -160 Vdd
IOPIN 656 -160 Out
FLAG 624 -176 Vctrl
IOPIN 624 -176 In
FLAG 800 -80 Vdd
IOPIN 800 -80 Out
FLAG 912 -192 Vpwm
IOPIN 912 -192 Out
FLAG 816 368 Vdd
IOPIN 816 368 In
SYMBOL PowerProducts\\LTC1693-1 496 496 R0
SYMATTR InstName GATE_DRIVER
SYMBOL nmos 768 512 R0
SYMATTR InstName M1
SYMATTR Value NTMFS5C646NL
SYMBOL pmos 768 464 M180
SYMATTR InstName M2
SYMATTR Value Si4427DY
SYMBOL voltage -1072 256 R0
WINDOW 123 0 0 Left 0
WINDOW 39 0 0 Left 0
SYMATTR InstName V2
SYMATTR Value 2.5
SYMBOL voltage -864 176 R0
WINDOW 123 0 0 Left 0
WINDOW 39 0 0 Left 0
SYMATTR InstName V3
SYMATTR Value 2.7
SYMBOL voltage -720 160 R0
WINDOW 123 0 0 Left 0
WINDOW 39 0 0 Left 0
SYMATTR InstName V4
SYMATTR Value 2.5
SYMBOL SN74AHC00 -176 368 R0
WINDOW 0 8 -56 Bottom 0
WINDOW 3 8 56 Top 0
SYMATTR InstName NAND1
SYMBOL CD4069UB -256 544 R90
SYMATTR InstName NOT1
SYMBOL SN74AHC00 -176 784 R0
WINDOW 0 8 -56 Bottom 0
WINDOW 3 8 56 Top 0
SYMATTR InstName NAND2
SYMBOL CD4069UB 48 704 R0
WINDOW 0 64 -52 Bottom 0
WINDOW 3 64 55 Top 0
SYMATTR InstName NOT2
SYMBOL cap -64 560 R90
WINDOW 0 0 32 VBottom 2
WINDOW 3 32 32 VTop 2
SYMATTR InstName CN
SYMATTR Value 10p
SYMBOL cap -64 432 R90
WINDOW 0 0 32 VBottom 2
WINDOW 3 32 32 VTop 2
SYMATTR InstName CP
SYMATTR Value 10p
SYMBOL CD4069UB 16 576 M0
WINDOW 0 64 -52 Bottom 0
WINDOW 3 64 55 Top 0
SYMATTR InstName NOT3
SYMBOL CD4069UB 16 448 M0
WINDOW 0 64 -52 Bottom 0
WINDOW 3 64 55 Top 0
SYMATTR InstName NOT4
SYMBOL CD4069UB 144 576 M0
WINDOW 0 64 -52 Bottom 0
WINDOW 3 64 55 Top 0
SYMATTR InstName NOT5
SYMBOL ind 992 480 R90
WINDOW 0 5 56 VBottom 2
WINDOW 3 32 56 VTop 2
SYMATTR InstName L
SYMATTR Value 100µ
SYMBOL cap 1008 528 R0
SYMATTR InstName C
SYMATTR Value 47µ
SYMBOL res 496 -480 M90
WINDOW 0 0 56 VBottom 2
WINDOW 3 32 56 VTop 2
SYMATTR InstName R4
SYMATTR Value 1k
SYMBOL cap 480 -560 R90
WINDOW 0 0 32 VBottom 2
WINDOW 3 32 32 VTop 2
SYMATTR InstName C2
SYMATTR Value 10n
SYMBOL res 336 -496 R90
WINDOW 0 0 56 VBottom 2
WINDOW 3 32 56 VTop 2
SYMATTR InstName R5
SYMATTR Value 1.25k
SYMBOL res 720 -592 R90
WINDOW 0 0 56 VBottom 2
WINDOW 3 32 56 VTop 2
SYMATTR InstName R6
SYMATTR Value 5k
SYMBOL voltage -48 -496 R0
WINDOW 123 0 0 Left 0
WINDOW 39 0 0 Left 0
SYMATTR InstName VDD1
SYMATTR Value 5
SYMBOL MCP6001 400 -464 M180
SYMATTR InstName U1
SYMBOL LM339 720 -448 R0
SYMATTR InstName U5
SYMBOL res 912 -464 R90
WINDOW 0 0 56 VBottom 2
WINDOW 3 32 56 VTop 2
SYMATTR InstName R7
SYMATTR Value 50
SYMBOL LM339 688 -192 M180
SYMATTR InstName U6
SYMBOL res 784 -208 R0
SYMATTR InstName R8
SYMATTR Value 550
TEXT 368 800 Left 2 !.tran 0 200us 0 1us
