Version 4.1
SHEET 1 3892 680
WIRE 784 -880 240 -880
WIRE 784 -800 784 -880
WIRE 784 -800 736 -800
WIRE 448 -768 368 -768
WIRE 544 -768 512 -768
WIRE 944 -752 720 -752
WIRE 960 -752 944 -752
WIRE 240 -704 240 -880
WIRE 272 -704 240 -704
WIRE 368 -704 368 -768
WIRE 368 -704 352 -704
WIRE 400 -704 368 -704
WIRE 720 -704 720 -752
WIRE 544 -688 544 -768
WIRE 544 -688 464 -688
WIRE 656 -688 656 -800
WIRE 656 -688 624 -688
WIRE 688 -688 656 -688
WIRE 784 -672 784 -800
WIRE 784 -672 752 -672
WIRE 848 -672 784 -672
WIRE 944 -672 944 -752
WIRE 944 -672 928 -672
WIRE 1696 -544 1200 -544
WIRE 2672 -528 2672 -576
WIRE 2736 -528 2672 -528
WIRE 2848 -528 2800 -528
WIRE 1408 -464 1360 -464
WIRE 2848 -464 2848 -528
WIRE 2848 -464 2832 -464
WIRE 2912 -464 2848 -464
WIRE 1200 -448 1200 -544
WIRE 1248 -448 1200 -448
WIRE 2672 -448 2672 -528
WIRE 2768 -448 2672 -448
WIRE 544 -432 544 -688
WIRE 656 -432 544 -432
WIRE 832 -416 720 -416
WIRE 944 -416 832 -416
WIRE 1216 -416 944 -416
WIRE 1248 -416 1216 -416
WIRE 1408 -352 1408 -464
WIRE 1424 -352 1408 -352
WIRE 1696 -352 1696 -544
WIRE 1840 -352 1696 -352
WIRE 2128 -352 2096 -352
WIRE 2240 -352 2240 -416
WIRE 2240 -352 2128 -352
WIRE 832 -304 832 -336
WIRE 1216 -304 1216 -416
WIRE 2288 -304 2288 -336
WIRE 2368 -304 2288 -304
WIRE 2496 -304 2448 -304
WIRE 2880 -304 2496 -304
WIRE 2960 -304 2944 -304
WIRE 2992 -304 2992 -464
WIRE 2992 -304 2960 -304
WIRE 3008 -304 2992 -304
WIRE 2288 -288 2288 -304
WIRE 2496 -272 2496 -304
WIRE 1840 -256 1696 -256
WIRE 2112 -256 2096 -256
WIRE 1424 -224 1408 -224
WIRE 1552 -224 1536 -224
WIRE 2112 -208 2112 -256
WIRE 2128 -208 2112 -208
WIRE 2240 -208 2128 -208
WIRE 1472 -96 1232 -96
WIRE 1696 -96 1696 -256
WIRE 1696 -96 1584 -96
WIRE 1408 -48 1408 -224
WIRE 1408 -48 1360 -48
WIRE 1232 -32 1232 -96
WIRE 1248 -32 1232 -32
WIRE 1216 0 1216 -192
WIRE 1248 0 1216 0
FLAG -304 -624 0
FLAG -304 -704 Vcm
IOPIN -304 -704 Out
FLAG -192 -624 0
FLAG -192 -704 Vref
IOPIN -192 -704 Out
FLAG 1184 -240 0
FLAG 1536 -64 0
FLAG 1360 16 0
FLAG 1360 -400 0
FLAG 1248 -240 Vdd
IOPIN 1248 -240 In
FLAG 1360 -432 Vdd
IOPIN 1360 -432 In
FLAG 1360 -16 Vdd
IOPIN 1360 -16 In
FLAG 1536 -128 Vdd
IOPIN 1536 -128 In
FLAG 1344 -224 0
FLAG 1344 -352 0
FLAG 1472 -192 0
FLAG 1600 -192 0
FLAG 1472 -320 0
FLAG 1472 -384 Vdd
IOPIN 1472 -384 In
FLAG 1472 -256 Vdd
IOPIN 1472 -256 In
FLAG 1600 -256 Vdd
IOPIN 1600 -256 In
FLAG 1536 -352 Vgate_n
IOPIN 1536 -352 In
FLAG 1664 -224 Vgate_p
IOPIN 1664 -224 In
FLAG 1904 -176 0
FLAG 2032 -176 0
FLAG 1904 -432 Vdd
IOPIN 1904 -432 In
FLAG 2032 -432 Vdd
IOPIN 2032 -432 In
FLAG 2288 -192 0
FLAG 2128 -352 Vgate_p
IOPIN 2128 -352 Out
FLAG 2128 -208 Vgate_n
IOPIN 2128 -208 Out
FLAG 2496 -208 0
FLAG -80 -624 0
FLAG -80 -704 Vdd
IOPIN -80 -704 Out
FLAG 960 -752 Vdd
IOPIN 960 -752 In
FLAG 432 -656 Vdd
IOPIN 432 -656 In
FLAG 720 -640 0
FLAG 432 -720 0
FLAG 400 -672 Vcm
IOPIN 400 -672 In
FLAG 688 -656 Vcm
IOPIN 688 -656 In
FLAG 688 -448 0
FLAG 688 -384 Vdd
IOPIN 688 -384 Out
FLAG 656 -400 Vctrl
IOPIN 656 -400 In
FLAG 832 -304 Vdd
IOPIN 832 -304 Out
FLAG 944 -416 Vpwm
IOPIN 944 -416 Out
FLAG 2288 -432 Vdd
IOPIN 2288 -432 In
FLAG 3088 -304 0
FLAG 2496 -304 Vout
IOPIN 2496 -304 Out
FLAG 2960 -304 Vfb
FLAG 2832 -432 Vref
IOPIN 2832 -432 In
FLAG 2672 -576 Vctrl
IOPIN 2672 -576 Out
FLAG 2800 -416 Vdd
IOPIN 2800 -416 In
FLAG 2800 -480 0
SYMBOL PowerProducts\\LTC1693-1 1968 -304 R0
SYMATTR InstName GATE_DRIVER1
SYMBOL nmos 2240 -288 R0
SYMATTR InstName M1
SYMATTR Value NTMFS5C646NL
SYMBOL pmos 2240 -336 M180
SYMATTR InstName M2
SYMATTR Value Si4427DY
SYMBOL voltage -304 -720 R0
WINDOW 123 0 0 Left 0
WINDOW 39 0 0 Left 0
SYMATTR InstName V1
SYMATTR Value 2.5
SYMBOL voltage -192 -720 R0
WINDOW 123 0 0 Left 0
WINDOW 39 0 0 Left 0
SYMATTR InstName V2
SYMATTR Value 250m
SYMBOL SN74AHC00 1296 -432 R0
WINDOW 0 8 -56 Bottom 0
WINDOW 3 8 56 Top 0
SYMATTR InstName NAND1
SYMBOL CD4069UB 1216 -256 R90
SYMATTR InstName NOT1
SYMBOL SN74AHC00 1296 -16 R0
WINDOW 0 8 -56 Bottom 0
WINDOW 3 8 56 Top 0
SYMATTR InstName NAND2
SYMBOL CD4069UB 1520 -96 R0
WINDOW 0 64 -52 Bottom 0
WINDOW 3 64 55 Top 0
SYMATTR InstName NOT2
SYMBOL cap 1408 -240 R90
WINDOW 0 0 32 VBottom 2
WINDOW 3 32 32 VTop 2
SYMATTR InstName CN1
SYMATTR Value 1n
SYMBOL cap 1408 -368 R90
WINDOW 0 0 32 VBottom 2
WINDOW 3 32 32 VTop 2
SYMATTR InstName CP1
SYMATTR Value 1n
SYMBOL CD4069UB 1488 -224 M0
WINDOW 0 64 -52 Bottom 0
WINDOW 3 64 55 Top 0
SYMATTR InstName NOT3
SYMBOL CD4069UB 1488 -352 M0
WINDOW 0 64 -52 Bottom 0
WINDOW 3 64 55 Top 0
SYMATTR InstName NOT4
SYMBOL CD4069UB 1616 -224 M0
WINDOW 0 64 -52 Bottom 0
WINDOW 3 64 55 Top 0
SYMATTR InstName NOT5
SYMBOL ind 2464 -320 R90
WINDOW 0 5 56 VBottom 2
WINDOW 3 32 56 VTop 2
SYMATTR InstName L
SYMATTR Value 100µ
SYMBOL cap 2480 -272 R0
SYMATTR InstName C
SYMATTR Value 47µ
SYMBOL res 528 -704 M90
WINDOW 0 0 56 VBottom 2
WINDOW 3 32 56 VTop 2
SYMATTR InstName R2
SYMATTR Value 1k
SYMBOL cap 512 -784 R90
WINDOW 0 0 32 VBottom 2
WINDOW 3 32 32 VTop 2
SYMATTR InstName C1
SYMATTR Value 10n
SYMBOL res 368 -720 R90
WINDOW 0 0 56 VBottom 2
WINDOW 3 32 56 VTop 2
SYMATTR InstName R1
SYMATTR Value 1.25k
SYMBOL res 752 -816 R90
WINDOW 0 0 56 VBottom 2
WINDOW 3 32 56 VTop 2
SYMATTR InstName R3
SYMATTR Value 5k
SYMBOL voltage -80 -720 R0
WINDOW 123 0 0 Left 0
WINDOW 39 0 0 Left 0
SYMATTR InstName VDD1
SYMATTR Value 5
SYMBOL MCP6001 432 -688 M180
SYMATTR InstName OPA1
SYMBOL LM339 752 -672 R0
SYMATTR InstName CMP1
SYMBOL res 944 -688 R90
WINDOW 0 0 56 VBottom 2
WINDOW 3 32 56 VTop 2
SYMATTR InstName Rpullup1
SYMATTR Value 50
SYMBOL LM339 720 -416 M180
SYMATTR InstName CMP2
SYMBOL res 816 -432 R0
SYMATTR InstName Rpullup2
SYMATTR Value 550
SYMBOL LED 2880 -288 R270
WINDOW 0 72 32 VTop 2
WINDOW 3 0 32 VBottom 2
SYMATTR InstName D1
SYMATTR Value L128-FRD1003500000
SYMBOL res 2992 -288 R270
WINDOW 0 32 56 VTop 2
WINDOW 3 0 56 VBottom 2
SYMATTR InstName RSense
SYMATTR Value 5
SYMBOL res 3008 -480 R90
WINDOW 0 0 56 VBottom 2
WINDOW 3 32 56 VTop 2
SYMATTR InstName R11
SYMATTR Value 50k
SYMBOL MCP6001 2800 -448 R180
SYMATTR InstName OPA2
SYMBOL cap 2800 -544 R90
WINDOW 0 0 32 VBottom 2
WINDOW 3 32 32 VTop 2
SYMATTR InstName C11
SYMATTR Value 25n
TEXT -336 -536 Left 2 !.tran 0 30ms 0 10us startup
TEXT 544 -176 Left 2 ;PWM Modulator
TEXT 1864 120 Left 2 ;Power Stage
TEXT 2808 -208 Left 2 ;Type 1 Compensator
RECTANGLE Normal 1072 -208 208 -912 2
RECTANGLE Normal 2592 80 1152 -576 2
RECTANGLE Normal 3152 -240 2624 -672 2
