Version 4.1
SHEET 1 1844 1336
WIRE -528 -384 -1072 -384
WIRE -528 -304 -528 -384
WIRE -528 -304 -576 -304
WIRE -864 -272 -944 -272
WIRE -768 -272 -800 -272
WIRE -368 -256 -592 -256
WIRE -352 -256 -368 -256
WIRE -1072 -208 -1072 -384
WIRE -1040 -208 -1072 -208
WIRE -944 -208 -944 -272
WIRE -944 -208 -960 -208
WIRE -912 -208 -944 -208
WIRE -592 -208 -592 -256
WIRE -768 -192 -768 -272
WIRE -768 -192 -848 -192
WIRE -656 -192 -656 -304
WIRE -656 -192 -688 -192
WIRE -624 -192 -656 -192
WIRE -528 -176 -528 -304
WIRE -528 -176 -560 -176
WIRE -464 -176 -528 -176
WIRE -368 -176 -368 -256
WIRE -368 -176 -384 -176
WIRE 384 -48 -112 -48
WIRE 1360 -32 1360 -80
WIRE 1424 -32 1360 -32
WIRE 1536 -32 1488 -32
WIRE 96 32 48 32
WIRE 1536 32 1536 -32
WIRE 1536 32 1520 32
WIRE 1600 32 1536 32
WIRE -112 48 -112 -48
WIRE -64 48 -112 48
WIRE 1360 48 1360 -32
WIRE 1456 48 1360 48
WIRE -768 64 -768 -192
WIRE -656 64 -768 64
WIRE -480 80 -592 80
WIRE -368 80 -480 80
WIRE -96 80 -368 80
WIRE -64 80 -96 80
WIRE 96 144 96 32
WIRE 112 144 96 144
WIRE 384 144 384 -48
WIRE 528 144 384 144
WIRE 816 144 784 144
WIRE 928 144 928 80
WIRE 928 144 816 144
WIRE -480 192 -480 160
WIRE -96 192 -96 80
WIRE 976 192 976 160
WIRE 1056 192 976 192
WIRE 1184 192 1136 192
WIRE 1568 192 1184 192
WIRE 1648 192 1632 192
WIRE 1680 192 1680 32
WIRE 1680 192 1648 192
WIRE 1696 192 1680 192
WIRE 976 208 976 192
WIRE 1184 224 1184 192
WIRE 528 240 384 240
WIRE 800 240 784 240
WIRE 112 272 96 272
WIRE 240 272 224 272
WIRE 800 288 800 240
WIRE 816 288 800 288
WIRE 928 288 816 288
WIRE 160 400 -80 400
WIRE 384 400 384 240
WIRE 384 400 272 400
WIRE 96 448 96 272
WIRE 96 448 48 448
WIRE -80 464 -80 400
WIRE -64 464 -80 464
WIRE -96 496 -96 304
WIRE -64 496 -96 496
WIRE -720 736 -1328 736
WIRE -432 752 -656 752
WIRE -336 752 -432 752
WIRE -1536 768 -1616 768
WIRE -1408 768 -1456 768
WIRE -720 768 -784 768
WIRE -432 768 -432 752
WIRE -1936 896 -2064 896
WIRE -1792 896 -1872 896
WIRE -1760 896 -1792 896
WIRE -1616 896 -1616 768
WIRE -1616 896 -1680 896
WIRE -1568 896 -1616 896
WIRE -1408 912 -1408 768
WIRE -1408 912 -1504 912
WIRE -1328 912 -1328 736
WIRE -1328 912 -1408 912
WIRE -2064 944 -2064 896
WIRE -1792 1056 -1792 896
WIRE -688 1056 -1792 1056
WIRE -432 1072 -624 1072
WIRE -320 1072 -432 1072
WIRE -784 1088 -784 768
WIRE -688 1088 -784 1088
WIRE -432 1120 -432 1072
WIRE -784 1200 -784 1088
FLAG -1616 -128 0
FLAG -1616 -208 Vcm
IOPIN -1616 -208 Out
FLAG -1504 -128 0
FLAG -1504 -208 Vref
IOPIN -1504 -208 Out
FLAG -128 256 0
FLAG 224 432 0
FLAG 48 512 0
FLAG 48 96 0
FLAG -64 256 Vdd
IOPIN -64 256 In
FLAG 48 64 Vdd
IOPIN 48 64 In
FLAG 48 480 Vdd
IOPIN 48 480 In
FLAG 224 368 Vdd
IOPIN 224 368 In
FLAG 32 272 0
FLAG 32 144 0
FLAG 160 304 0
FLAG 288 304 0
FLAG 160 176 0
FLAG 160 112 Vdd
IOPIN 160 112 In
FLAG 160 240 Vdd
IOPIN 160 240 In
FLAG 288 240 Vdd
IOPIN 288 240 In
FLAG 224 144 Vgate_n
IOPIN 224 144 In
FLAG 352 272 Vgate_p
IOPIN 352 272 In
FLAG 592 320 0
FLAG 720 320 0
FLAG 592 64 Vdd
IOPIN 592 64 In
FLAG 720 64 Vdd
IOPIN 720 64 In
FLAG 976 304 0
FLAG 816 144 Vgate_p
IOPIN 816 144 Out
FLAG 816 288 Vgate_n
IOPIN 816 288 Out
FLAG 1184 288 0
FLAG -1392 -128 0
FLAG -1392 -208 Vdd
IOPIN -1392 -208 Out
FLAG -352 -256 Vdd
IOPIN -352 -256 In
FLAG -880 -160 Vdd
IOPIN -880 -160 In
FLAG -592 -144 0
FLAG -880 -224 0
FLAG -912 -176 Vcm
IOPIN -912 -176 In
FLAG -624 -160 Vcm
IOPIN -624 -160 In
FLAG -624 48 0
FLAG -624 112 Vdd
IOPIN -624 112 Out
FLAG -656 96 Vctrl
IOPIN -656 96 In
FLAG -480 192 Vdd
IOPIN -480 192 Out
FLAG -368 80 Vpwm
IOPIN -368 80 Out
FLAG 976 64 Vdd
IOPIN 976 64 In
FLAG 1776 192 0
FLAG 1184 192 Vout
IOPIN 1184 192 Out
FLAG 1648 192 Vfb
FLAG 1520 64 Vref
IOPIN 1520 64 In
FLAG 1360 -80 Vctrl
IOPIN 1360 -80 Out
FLAG 1488 80 Vdd
IOPIN 1488 80 In
FLAG 1488 16 0
FLAG -768 64 Vramp
IOPIN -768 64 Out
FLAG -688 784 0
FLAG -656 1104 0
FLAG -784 1200 Vramp
IOPIN -784 1200 In
FLAG -1536 880 0
FLAG -2064 1024 0
FLAG -1536 944 Vdd
IOPIN -1536 944 In
FLAG -1568 928 Vcm
IOPIN -1568 928 In
FLAG -432 848 Vdd
IOPIN -432 848 In
FLAG -432 1200 Vdd
IOPIN -432 1200 In
FLAG -656 1040 Vdd
IOPIN -656 1040 In
FLAG -688 720 Vdd
IOPIN -688 720 In
SYMBOL PowerProducts\\LTC1693-1 656 192 R0
SYMATTR InstName GATE_DRIVER1
SYMBOL nmos 928 208 R0
SYMATTR InstName M1
SYMATTR Value NTMFS5C646NL
SYMBOL pmos 928 160 M180
SYMATTR InstName M2
SYMATTR Value Si4427DY
SYMBOL voltage -1616 -224 R0
WINDOW 123 0 0 Left 0
WINDOW 39 0 0 Left 0
SYMATTR InstName V1
SYMATTR Value 2.5
SYMBOL voltage -1504 -224 R0
WINDOW 123 0 0 Left 0
WINDOW 39 0 0 Left 0
SYMATTR InstName V2
SYMATTR Value 250m
SYMBOL SN74AHC00 -16 64 R0
WINDOW 0 8 -56 Bottom 0
WINDOW 3 8 56 Top 0
SYMATTR InstName NAND1
SYMBOL CD4069UB -96 240 R90
SYMATTR InstName NOT1
SYMBOL SN74AHC00 -16 480 R0
WINDOW 0 8 -56 Bottom 0
WINDOW 3 8 56 Top 0
SYMATTR InstName NAND2
SYMBOL CD4069UB 208 400 R0
WINDOW 0 64 -52 Bottom 0
WINDOW 3 64 55 Top 0
SYMATTR InstName NOT2
SYMBOL cap 96 256 R90
WINDOW 0 0 32 VBottom 2
WINDOW 3 32 32 VTop 2
SYMATTR InstName CN1
SYMATTR Value 1n
SYMBOL cap 96 128 R90
WINDOW 0 0 32 VBottom 2
WINDOW 3 32 32 VTop 2
SYMATTR InstName CP1
SYMATTR Value 1n
SYMBOL CD4069UB 176 272 M0
WINDOW 0 64 -52 Bottom 0
WINDOW 3 64 55 Top 0
SYMATTR InstName NOT3
SYMBOL CD4069UB 176 144 M0
WINDOW 0 64 -52 Bottom 0
WINDOW 3 64 55 Top 0
SYMATTR InstName NOT4
SYMBOL CD4069UB 304 272 M0
WINDOW 0 64 -52 Bottom 0
WINDOW 3 64 55 Top 0
SYMATTR InstName NOT5
SYMBOL ind 1152 176 R90
WINDOW 0 5 56 VBottom 2
WINDOW 3 32 56 VTop 2
SYMATTR InstName L1
SYMATTR Value 100µ
SYMBOL cap 1168 224 R0
SYMATTR InstName C1
SYMATTR Value 47µ
SYMBOL res -784 -208 M90
WINDOW 0 0 56 VBottom 2
WINDOW 3 32 56 VTop 2
SYMATTR InstName R1
SYMATTR Value 1k
SYMBOL cap -800 -288 R90
WINDOW 0 0 32 VBottom 2
WINDOW 3 32 32 VTop 2
SYMATTR InstName C2
SYMATTR Value 10n
SYMBOL res -944 -224 R90
WINDOW 0 0 56 VBottom 2
WINDOW 3 32 56 VTop 2
SYMATTR InstName R2
SYMATTR Value 1.25k
SYMBOL res -560 -320 R90
WINDOW 0 0 56 VBottom 2
WINDOW 3 32 56 VTop 2
SYMATTR InstName R3
SYMATTR Value 5k
SYMBOL voltage -1392 -224 R0
WINDOW 123 0 0 Left 0
WINDOW 39 0 0 Left 0
SYMATTR InstName VDD1
SYMATTR Value 5
SYMBOL MCP6001 -880 -192 M180
SYMATTR InstName OPA1
SYMBOL LM339 -560 -176 R0
SYMATTR InstName CMP1
SYMBOL res -368 -192 R90
WINDOW 0 0 56 VBottom 2
WINDOW 3 32 56 VTop 2
SYMATTR InstName Rpullup1
SYMATTR Value 50
SYMBOL LM339 -592 80 M180
SYMATTR InstName CMP2
SYMBOL res -496 64 R0
SYMATTR InstName Rpullup2
SYMATTR Value 550
SYMBOL LED 1568 208 R270
WINDOW 0 72 32 VTop 2
WINDOW 3 0 32 VBottom 2
SYMATTR InstName D1
SYMATTR Value L128-FRD1003500000
SYMBOL res 1680 208 R270
WINDOW 0 32 56 VTop 2
WINDOW 3 0 56 VBottom 2
SYMATTR InstName RSense1
SYMATTR Value 5
SYMBOL res 1696 16 R90
WINDOW 0 0 56 VBottom 2
WINDOW 3 32 56 VTop 2
SYMATTR InstName R4
SYMATTR Value 50k
SYMBOL MCP6001 1488 48 R180
SYMATTR InstName OPA2
SYMBOL cap 1488 -48 R90
WINDOW 0 0 32 VBottom 2
WINDOW 3 32 32 VTop 2
SYMATTR InstName C3
SYMATTR Value 25n
SYMBOL LM339 -656 752 R0
SYMATTR InstName CM1
SYMBOL LM339 -624 1072 R0
SYMATTR InstName CM2
SYMBOL MCP6001 -1536 912 M180
SYMATTR InstName U1
SYMBOL res -1440 752 R90
WINDOW 0 0 56 VBottom 2
WINDOW 3 32 56 VTop 2
SYMATTR InstName R5
SYMATTR Value 1k
SYMBOL res -1664 880 R90
WINDOW 0 0 56 VBottom 2
WINDOW 3 32 56 VTop 2
SYMATTR InstName R6
SYMATTR Value 1k
SYMBOL cap -1872 880 R90
WINDOW 0 0 32 VBottom 2
WINDOW 3 32 32 VTop 2
SYMATTR InstName C4
SYMATTR Value 1µ
SYMBOL voltage -2064 928 R0
WINDOW 123 0 0 Left 0
WINDOW 39 0 0 Left 0
SYMATTR InstName V3
SYMATTR Value SINE(0 0.5 1k)
SYMBOL res -416 1216 R180
WINDOW 0 36 76 Left 2
WINDOW 3 36 40 Left 2
SYMATTR InstName R7
SYMATTR Value 550
SYMBOL res -416 864 R180
WINDOW 0 36 76 Left 2
WINDOW 3 36 40 Left 2
SYMATTR InstName R8
SYMATTR Value 550
TEXT -1648 -40 Left 2 !.tran 0 30ms 0 10us startup
TEXT -768 320 Left 2 ;PWM Modulator
TEXT 552 616 Left 2 ;Power Stage
TEXT 1496 288 Left 2 ;Type 1 Compensator
RECTANGLE Normal -240 288 -1104 -416 2
RECTANGLE Normal 1280 576 -160 -80 2
RECTANGLE Normal 1840 256 1312 -176 2
